22
172.log	Energy: -590810.3949852
Au         0.87019        0.14173       -0.06062
Cl         1.31032        0.34866       -2.34443
N          0.94185        0.84638        2.90960
C          0.32489        0.18868        1.88774
N         -0.73918       -0.43240        2.47030
C         -1.70064       -1.27263        1.76063
C          0.27283        0.63445        4.11279
H          0.60440        1.07223        5.03796
C         -0.78191       -0.16773        3.83716
H         -1.55120       -0.56692        4.47462
H         -1.61132       -2.30910        2.08973
H         -2.71363       -0.91224        1.94349
C          2.15093        1.65374        2.76707
H          2.98788        1.17403        3.27698
H          2.37583        1.74061        1.70624
H          1.98375        2.64739        3.18430
H         -1.48205       -1.21094        0.69673
H          1.89729       -1.23669        0.01242
C          2.59129       -2.14647        0.05075
H          2.20947       -2.90246       -0.63550
H          3.58695       -1.83054       -0.26174
H          2.61933       -2.53152        1.07236
