22
182.log	Energy: -590816.0047931
Au         0.85715        0.16823       -0.07551
Cl         1.32531        0.33837       -2.34943
N          0.95180        0.83773        2.89805
C          0.32833        0.19066        1.87315
N         -0.72976       -0.43995        2.45673
C         -1.69499       -1.27431        1.74516
C          0.29269        0.60994        4.10368
H          0.63083        1.03706        5.03145
C         -0.76233       -0.19149        3.82680
H         -1.52532       -0.60055        4.46557
H         -1.61306       -2.31083        2.07586
H         -2.70628       -0.90729        1.92454
C          2.15810        1.64945        2.75626
H          2.99503        1.17424        3.27032
H          2.38580        1.73307        1.69580
H          1.98633        2.64404        3.16950
H         -1.47260       -1.21535        0.68193
H          1.93598       -1.29392        0.03720
C          2.61540       -2.19536        0.10304
H          2.24111       -2.96442       -0.57317
H          3.61878       -1.89439       -0.20010
H          2.62728       -2.56347        1.13139
