22
192.log	Energy: -590820.0416581
Au         0.84283        0.18541       -0.08912
Cl         1.32902        0.32145       -2.35600
N          0.96083        0.83344        2.88502
C          0.33086        0.19197        1.86037
N         -0.72065       -0.44615        2.44802
C         -1.68934       -1.27843        1.73866
C          0.31225        0.59478        4.09414
H          0.65703        1.01563        5.02233
C         -0.74264       -0.20780        3.81999
H         -1.49883       -0.62428        4.46204
H         -1.61165       -2.31410        2.07294
H         -2.69927       -0.90673        1.91626
C          2.16363        1.64979        2.73987
H          3.00167        1.18098        3.25790
H          2.39241        1.72768        1.67923
H          1.98732        2.64621        3.14683
H         -1.46599       -1.22402        0.67541
H          1.97567       -1.35816        0.06122
C          2.64446       -2.25216        0.15034
H          2.27569       -3.03372       -0.51480
H          3.65313       -1.96310       -0.14733
H          2.64547       -2.60403        1.18453
