22
212.log	Energy: -590825.0539835
Au         0.82410        0.21631       -0.10777
Cl         1.33847        0.31070       -2.36318
N          0.97280        0.82396        2.86874
C          0.33475        0.19350        1.84193
N         -0.70739       -0.45800        2.43219
C         -1.68012       -1.28536        1.72253
C          0.33851        0.56534        4.08114
H          0.69185        0.97428        5.01143
C         -0.71543       -0.23865        3.80731
H         -1.46198       -0.66853        4.45182
H         -1.61023       -2.32024        2.06075
H         -2.68818       -0.90633        1.89562
C          2.16974        1.64874        2.72262
H          3.00806        1.19069        3.24962
H          2.40398        1.71820        1.66263
H          1.98401        2.64768        3.11931
H         -1.45290       -1.23638        0.65987
H          2.06689       -1.48876        0.10430
C          2.72069       -2.37242        0.22585
H          2.36084       -3.17025       -0.42510
H          3.73717       -2.09976       -0.06119
H          2.70493       -2.70367        1.26671
