22
222.log	Energy: -590826.5561307
Au         0.86812        0.13767       -0.14089
Cl         1.45501        0.11807       -2.37803
N          0.94018        0.86777        2.80920
C          0.33252        0.18985        1.79412
N         -0.71808       -0.44691        2.38567
C         -1.66637       -1.31186        1.68785
C          0.27888        0.65287        4.01563
H          0.60631        1.10250        4.93658
C         -0.76121       -0.17164        3.74999
H         -1.51916       -0.58232        4.39371
H         -1.60173       -2.32931        2.07624
H         -2.68071       -0.93094        1.81380
C          2.13258        1.69823        2.65806
H          2.40133        1.71363        1.60413
H          1.92370        2.71474        2.99407
H          2.95735        1.27894        3.23614
H         -1.40853       -1.31153        0.63109
H          2.17090       -1.62473        0.21632
C          2.82122       -2.49279        0.40788
H          2.48801       -3.32794       -0.20971
H          3.84622       -2.23139        0.14123
H          2.77234       -2.76864        1.46370
