22
232.log	Energy: -590827.6162138
Au         0.86873        0.11622       -0.15624
Cl         1.47568        0.05795       -2.38557
N          0.92637        0.88016        2.78431
C          0.32851        0.18423        1.77551
N         -0.71651       -0.45735        2.37193
C         -1.65390       -1.34033        1.68197
C          0.26451        0.67171        3.99150
H          0.58498        1.13502        4.90810
C         -0.76586       -0.16713        3.73287
H         -1.52054       -0.57912        4.37958
H         -1.58488       -2.35059        2.08791
H         -2.67178       -0.96459        1.79433
C          2.10922        1.72296        2.62653
H          2.38890        1.71813        1.57537
H          1.88384        2.74401        2.93728
H          2.93307        1.32754        3.22242
H         -1.38845       -1.35595        0.62723
H          2.24273       -1.70567        0.26546
C          2.89572       -2.56146        0.48226
H          2.57607       -3.41309       -0.11992
H          3.92176       -2.29887        0.22069
H          2.83901       -2.81631        1.54287
