22
252.log	Energy: -590828.8324088
Au         0.85093        0.15981       -0.15722
Cl         1.44865        0.12098       -2.38718
N          0.95013        0.85883        2.79666
C          0.33541        0.18880        1.78030
N         -0.70639       -0.45926        2.37563
C         -1.65839       -1.32080        1.67856
C          0.30156        0.62839        4.00697
H          0.63633        1.06940        4.92945
C         -0.73730       -0.19824        3.74293
H         -1.48646       -0.61980        4.38989
H         -1.59858       -2.33758        2.06932
H         -2.67119       -0.93509        1.80271
C          2.13577        1.69846        2.64279
H          2.41091        1.70379        1.59046
H          1.91640        2.71709        2.96565
H          2.96030        1.29278        3.23074
H         -1.39951       -1.32410        0.62210
H          2.32706       -1.83744        0.27322
C          2.96861       -2.69868        0.48095
H          2.63938       -3.54258       -0.12703
H          3.99749       -2.44670        0.21993
H          2.91274       -2.96419        1.53883
