22
262.log	Energy: -590829.1383617
Au         0.84891        0.16747       -0.15924
Cl         1.44787        0.12905       -2.38815
N          0.95427        0.85528        2.79657
C          0.33714        0.18955        1.77876
N         -0.70410       -0.45996        2.37362
C         -1.65830       -1.31797        1.67518
C          0.30766        0.62088        4.00713
H          0.64447        1.05813        4.93064
C         -0.73233       -0.20394        3.74189
H         -1.48061       -0.62739        4.38865
H         -1.60034       -2.33570        2.06374
H         -2.67025       -0.93046        1.80073
C          2.14010        1.69486        2.64378
H          2.41521        1.70160        1.59146
H          1.92107        2.71310        2.96813
H          2.96450        1.28805        3.23111
H         -1.40002       -1.31956        0.61858
H          2.38000       -1.91171        0.28804
C          3.01860       -2.77343        0.49620
H          2.68828       -3.61692       -0.11177
H          4.04853       -2.52444        0.23644
H          2.96148       -3.03943        1.55380
