22
302.log	Energy: -590829.3720675
Au         0.83930        0.17093       -0.16608
Cl         1.43382        0.12987       -2.39469
N          0.95645        0.85363        2.78969
C          0.33706        0.18738        1.77341
N         -0.69887       -0.46738        2.37215
C         -1.65430       -1.32652        1.67676
C          0.31611        0.61496        4.00268
H          0.65547        1.05196        4.92538
C         -0.72193       -0.21341        3.74084
H         -1.46564       -0.64071        4.39033
H         -1.59698       -2.34305        2.06852
H         -2.66589       -0.93780        1.80167
C          2.13772        1.69899        2.63321
H          2.41056        1.70596        1.58032
H          1.91439        2.71651        2.95694
H          2.96539        1.29694        3.21923
H         -1.39665       -1.33164        0.62004
H          2.61209       -2.21942        0.35088
C          3.25060       -3.07868        0.55775
H          2.91986       -3.92437       -0.04691
H          4.28031       -2.83076        0.29621
H          3.19657       -3.34351        1.61554
