9
NH3_CH4_opt.log	Energy:  -60944.6895621
H          2.86698       -2.30270        0.45751
C          3.67859       -2.98085        0.72679
H          3.55793       -3.92930        0.19944
H          4.63753       -2.53717        0.45145
H          3.66466       -3.16486        1.80297
H          0.90989       -0.48732       -1.18657
H          0.01449       -1.06501        0.05685
H          1.00777        0.21604        0.28898
N          0.91889       -0.67507       -0.18902
