9
 SCF done         -8.603457459985          0.000006793869
H           2.78050449822493   -2.23048441674224    0.42874804098216
C           3.58630385802396   -2.90374429613310    0.69615583121707
H           3.46448413821906   -3.84312916780291    0.17228944214982
H           4.53569271993118   -2.46177157774949    0.42221992982681
H           3.57037260882978   -3.08447017307848    1.76330358292502
H           1.02730153106720   -0.58554718049770   -1.14638120333860
H           0.13300573113082   -1.16265231700358    0.09546013705402
H           1.12504906879333    0.11681039865895    0.32743174104709
N           1.03401846577975   -0.77125403965146   -0.15082151186339
