39
cdex_Au_opt_xtb_E_sugar_ghost.log	Energy: -457944.1156825
Ag         2.65911       -0.83811        0.33382
Cl         2.42216       -2.88068        1.32581
C          2.72007        1.06311       -0.78711
N          2.75730        2.22409       -1.47161
C          3.89785        2.92173       -1.19216
C          4.90822        3.53975       -0.94461
H          5.80189        4.08638       -0.72565
H          0.31218        0.83628       -1.71357
C         -0.37522        0.67665       -0.90926
O         -0.85944        1.93902       -0.50053
C         -1.47199       -0.30928       -1.35798
H          0.14885        0.18228       -0.07297
C         -1.79759        1.83587        0.55110
O         -0.80229       -1.55448       -1.42138
H         -1.86667       -0.03439       -2.34821
C         -2.64564       -0.33038       -0.35783
C         -3.04132        1.11865       -0.00910
H         -2.04230        2.87011        0.82720
O         -1.31909        1.11892        1.63635
C         -1.44209       -2.59383       -2.12021
O         -3.75171       -1.00548       -0.92933
H         -2.31065       -0.84037        0.55095
O         -4.08559        1.17938        0.93244
H         -3.33462        1.63593       -0.93390
C         -0.74437        1.82773        2.72513
H         -2.42883       -2.73143       -1.72995
H         -0.88312       -3.49877       -2.00386
H         -1.50108       -2.34203       -3.15848
C         -4.36411       -1.95115       -0.06957
C         -5.36308        1.42094        0.38299
H         -1.50878        2.37104        3.24030
H         -0.28375        1.13515        3.39823
H         -0.00772        2.51086        2.35694
H         -3.65758       -2.74397        0.18976
H         -5.19832       -2.36633       -0.63324
H         -4.73531       -1.47453        0.84230
H         -5.63678        0.65985       -0.35221
H         -5.40552        2.40904       -0.09027
H         -6.05726        1.39134        1.22063
