36
cdex_Au_opt_xtb_W_sugar_ghost.log	Energy: -433277.3645192
Ag        -2.05608        1.03582        0.18367
Cl        -1.53566        2.96832        1.28225
C         -2.71382       -0.88004       -0.69481
N         -3.11619       -2.05205       -1.23221
C         -4.31280       -2.44712       -0.70047
C         -5.37341       -2.79730       -0.22915
H         -6.30982       -3.10647        0.18697
H         -0.24829       -0.21892       -0.42300
C          0.24153       -0.83421       -1.19648
O          0.76432       -2.00310       -0.59608
C          1.30553        0.08551       -1.80404
H         -0.51255       -1.12309       -1.94795
C          1.62319       -1.67434        0.47066
O          0.60126        1.29293       -2.01387
H          1.69118       -0.31344       -2.75351
C          2.49496        0.30814       -0.84861
C          2.88436       -0.98706       -0.11246
H          1.88478       -2.63570        0.93072
O          1.02280       -0.81661        1.38268
H          0.62594        1.82117       -1.21265
O          3.58081        0.77074       -1.62216
H          2.19733        1.05620       -0.10485
O          3.78311       -0.65967        0.91199
H          3.35114       -1.68129       -0.83313
C          0.65995       -1.31349        2.67355
C          4.40852        1.71609       -0.96825
C          4.47995       -1.67055        1.47428
H          0.18267       -0.53662        3.23353
H         -0.01299       -2.13789        2.56217
H          1.53868       -1.63774        3.19085
H          4.83519        1.29645       -0.05483
H          3.83541        2.61643       -0.73041
H          5.20080        1.95403       -1.67608
H          5.23592       -1.21305        2.11456
H          3.86447       -2.33076        2.10378
H          4.98926       -2.29803        0.72272
