53
cdex_Au_opt_xtb_N_sugar.log	Energy: -529806.2927314
Ag        -1.51693       -1.91544        0.11090
Cl         0.02670       -3.59262        0.23940
C         -2.93915       -0.26473       -0.24592
N         -3.53921        0.49280        0.69769
N         -3.39602        0.22124       -1.41763
C         -4.36151        1.42392        0.12538
C         -3.36003        0.35315        2.12010
C         -4.27280        1.24856       -1.21391
C         -2.98052       -0.23135       -2.71648
H         -4.92924        2.12443        0.70189
H         -3.83661       -0.54510        2.45313
H         -3.79540        1.19385        2.61867
H         -2.31497        0.30696        2.34511
H         -4.75220        1.76702       -2.01825
H         -3.43973        0.37485       -3.46917
H         -1.91631       -0.15499       -2.79721
H         -3.27611       -1.25097       -2.85030
H         -0.83164        1.89794        2.22559
C          0.06111        1.52719        2.68432
H          0.71700        2.34452        2.90037
O          0.69272        0.64290        1.82001
H         -0.18875        1.02056        3.59305
C          1.50852        1.15524        0.78143
H          1.88389        2.15310        1.03773
C          2.69718        0.19012        0.66762
C          0.73144        1.23026       -0.54342
O          3.46019        0.31201        1.84371
H          2.30650       -0.82866        0.55709
C          3.53021        0.53287       -0.57641
O          1.58820        1.51179       -1.63268
H          0.24727        0.24602       -0.69767
C         -0.35482        2.30491       -0.50925
C          3.90689       -0.91630        2.37644
O          4.56459       -0.40926       -0.68236
H          3.94747        1.54741       -0.45932
C          2.59816        0.54028       -1.80963
O          0.15833        3.50595        0.01127
H         -0.72836        2.46331       -1.53333
H         -1.18392        1.95352        0.12016
H          4.44268       -0.66617        3.29010
H          4.57454       -1.42827        1.67725
H          3.06047       -1.56755        2.61597
C          5.56358       -0.09912       -1.62639
H          3.14950        0.86177       -2.70156
O          2.07126       -0.73634       -1.97176
C         -0.83677        4.48347        0.18052
H          5.94944        0.91520       -1.47124
H          5.20072       -0.19162       -2.65511
H          6.36128       -0.82164       -1.46326
H          2.77198       -1.34206       -2.22411
H         -0.34086        5.36597        0.57910
H         -1.60540        4.14087        0.88500
H         -1.31586        4.73415       -0.77422
