39
cdex_Au_opt_xtb_W_sugar_ghost.log	Energy: -457939.2807911
Cu        -2.46598        0.90272        0.66622
Cl        -1.92984        2.24198        2.18983
C         -3.00819       -0.35147       -0.72259
N         -3.38320       -1.21889       -1.68312
C         -4.61311       -1.74457       -1.39703
C         -5.70113       -2.20960       -1.14394
H         -6.66333       -2.62085       -0.92012
H         -0.41364       -0.02241       -0.20277
C          0.01753       -0.31248       -1.17401
C          1.16247        0.67901       -1.42615
O          0.43995       -1.66225       -1.11110
H         -0.73504       -0.21579       -1.92846
O          0.56634        1.93255       -1.16488
H          1.52435        0.62132       -2.46300
C          2.35076        0.42266       -0.47807
C          1.32038       -1.85727       -0.02720
C          1.23548        3.10722       -1.63106
O          3.48133        1.06775       -1.02234
H          2.09826        0.83749        0.50398
C          2.63270       -1.08383       -0.31817
H          1.50505       -2.93899       -0.00274
O          0.79197       -1.39858        1.17042
H          1.65717        3.63141       -0.79901
H          2.01487        2.82836       -2.30906
H          0.53507        3.74082       -2.13393
C          4.35063        1.64108       -0.06231
O          3.54246       -1.25114        0.73525
H          3.05592       -1.46819       -1.26260
C          0.32736       -2.33906        2.14229
H          4.72451        0.88201        0.62832
H          3.83155        2.42686        0.49364
H          5.17579        2.06872       -0.62938
C          4.16082       -2.44632        0.83796
H          0.84842       -2.18605        3.06424
H         -0.72215       -2.20133        2.29864
H          0.50819       -3.33351        1.79119
H          4.94595       -2.33139        1.58719
H          3.49546       -3.25651        1.17282
H          4.62624       -2.76136       -0.11184
