56
cdex_Au_opt_xtb_S_sugar.log	Energy: -554459.4555342
Cu        -1.87767       -1.88102        0.84135
Cl        -0.66044       -3.27641        1.82812
C         -3.01064       -0.55741       -0.03055
N         -3.46072       -0.55888       -1.30064
N         -3.50002        0.56735        0.52176
C         -4.21668        0.55564       -1.53984
C         -3.16933       -1.57707       -2.32009
C         -4.23778        1.26852       -0.38905
C         -3.32191        0.97325        1.92334
H         -4.67269        0.74972       -2.48815
H         -3.50245       -2.53336       -1.97450
H         -3.67836       -1.32874       -3.22790
H         -2.11507       -1.61023       -2.49993
H         -4.71235        2.19834       -0.15398
H         -3.71562        0.21468        2.56713
H         -2.27992        1.10762        2.12610
H         -3.84055        1.89290        2.09700
H         -1.06929        2.43104        1.59594
C         -0.08012        2.66124        1.93275
H          0.28377        3.52081        1.40965
H         -0.09926        2.86455        2.98308
O          0.78113        1.54841        1.67826
C          1.47098        1.47997        0.43671
H          1.79914        2.48159        0.12965
C          2.70845        0.59420        0.69315
C          0.58361        0.88153       -0.67316
O          3.67800        1.26168        1.46227
H          2.37760       -0.32617        1.19255
C          3.40145        0.21566       -0.62007
O          1.37155        0.63084       -1.86144
H          0.19327       -0.08543       -0.32037
C         -0.55141        1.75754       -1.02886
C          3.54873        1.12919        2.86171
O          4.38947       -0.73253       -0.31319
H          3.86031        1.12787       -1.03563
C          2.38617       -0.31724       -1.65399
O         -0.30918        3.10203       -1.14796
H         -0.94698        1.37700       -1.99994
H         -1.35360        1.59472       -0.30004
H          2.71950        1.72852        3.24370
H          4.48718        1.49343        3.27829
H          3.40725        0.08055        3.14280
C          5.36830       -0.91584       -1.30750
H          2.88579       -0.42885       -2.62282
O          1.87265       -1.53945       -1.21461
C         -1.45660        3.88846       -1.33567
H          4.96088       -1.39215       -2.20591
H          6.11982       -1.56840       -0.86711
H          5.82926        0.03922       -1.58588
C          2.39037       -2.59453       -2.02927
H         -2.13444        3.79786       -0.47802
H         -1.99404        3.59324       -2.24681
H         -1.11302        4.91551       -1.43109
H          2.30317       -3.52418       -1.50674
H          1.83512       -2.64525       -2.94252
H          3.42021       -2.40362       -2.24811
