56
cdex_Au_opt_xtb_N_sugar.log	Energy: -554467.2643631
Cu        -1.78929       -1.90060        0.65337
Cl        -0.44869       -3.36562        1.33082
C         -3.03041       -0.56027       -0.02405
N         -3.62844        0.43600        0.65822
N         -3.47886       -0.44895       -1.28744
C         -4.44579        1.15645       -0.16866
C         -3.47587        0.71412        2.09359
C         -4.35362        0.59428       -1.39684
C         -3.05525       -1.28902       -2.41692
H         -5.01507        1.99577        0.17251
H         -2.44568        0.90266        2.31283
H         -4.05895        1.57251        2.35451
H         -3.81192       -0.13038        2.65820
H         -4.83101        0.85260       -2.31902
H         -1.99598       -1.20766       -2.54435
H         -3.31351       -2.30849       -2.21974
H         -3.54791       -0.96238       -3.30883
H         -1.17717        2.23251        1.95684
C         -0.17370        2.25604        2.32752
H         -0.18582        2.17974        3.39472
H          0.29087        3.17635        2.04099
O          0.56269        1.15951        1.77957
C          1.34578        1.35608        0.61420
H          1.67020        2.40055        0.53457
C          2.58098        0.46274        0.80136
C          0.57063        0.96723       -0.65737
O          3.34712        1.01587        1.84526
H          2.23930       -0.54672        1.05813
C          3.39342        0.38666       -0.49942
O          1.42187        0.92408       -1.78825
H          0.13227       -0.03131       -0.49137
C         -0.55990        1.94925       -0.96408
C          3.87363        0.06792        2.74818
O          4.44355       -0.52290       -0.29888
H          3.79321        1.38919       -0.72759
C          2.45969       -0.02415       -1.66083
O         -0.10362        3.27451       -0.85928
H         -0.92914        1.75398       -1.98365
H         -1.37930        1.78306       -0.25201
H          4.42476        0.64057        3.49168
H          4.54486       -0.63009        2.23953
H          3.06970       -0.48910        3.23979
C          5.42614       -0.53738       -1.30893
H          3.00422        0.01586       -2.61156
O          1.96679       -1.30218       -1.41325
C         -1.14162        4.21049       -1.00224
H          5.79457        0.47473       -1.51287
H          5.05354       -0.97815       -2.23905
H          6.23891       -1.15080       -0.92403
C          1.82541       -2.20901       -2.50987
H         -0.68720        5.19474       -0.91064
H         -1.89851        4.07761       -0.21870
H         -1.62597        4.12215       -1.98290
H          2.51939       -3.01564       -2.39740
H          0.82807       -2.59623       -2.52618
H          2.02299       -1.69371       -3.42656
