48
cdex_Au_opt_xtb_S_sugar.log	Energy: -410746.3822088
Au         1.66308       -0.96695       -0.29823
Cl         1.35859       -3.09496       -0.96417
C          1.94083        0.96736        0.27982
N          2.12581        1.45068        1.52395
N          1.95661        2.04263       -0.52837
C          2.24884        2.81258        1.49293
C          2.15776        0.67572        2.73818
C          2.13799        3.18605        0.19633
C          1.85280        2.00679       -1.96170
H          2.40463        3.39614        2.37617
H          1.19311        0.24710        2.91322
H          2.42065        1.30967        3.55909
H          2.88323       -0.10512        2.64396
H          2.17564        4.15501       -0.25620
H          1.94170        2.99961       -2.35068
H          2.63541        1.39595       -2.36082
H          0.90402        1.59813       -2.24048
H         -0.52551        2.07038       -0.10906
C         -1.42382        1.98138        0.51286
O         -2.26038        3.03793        0.25917
C         -1.96744        0.61742        0.35088
H         -1.06622        2.05210        1.56740
C         -1.63775        4.29571        0.28375
C         -2.83111        0.46879       -0.91771
O         -2.74362        0.28046        1.52549
H         -1.13269       -0.09728        0.28547
H         -0.85985        4.35955       -0.48707
H         -1.18444        4.49392        1.26431
H         -2.41680        5.02808        0.08705
O         -2.05028        0.59219       -2.09972
H         -3.62025        1.23194       -0.90333
C         -3.47675       -0.93126       -0.98623
C         -3.17377       -1.05604        1.53096
C         -2.90713        0.54856       -3.24375
H         -2.72301       -1.65361       -1.22074
C         -4.13288       -1.30543        0.34703
H         -4.21968       -0.93721       -1.75624
H         -3.72301       -1.18318        2.47063
O         -2.10085       -1.94702        1.45625
H         -3.60683        1.35668       -3.19633
H         -2.31920        0.63755       -4.13331
H         -3.43650       -0.38122       -3.25763
H         -5.01562       -0.71572        0.48090
H         -4.40258       -2.34068        0.32655
C         -2.09465       -2.78397        2.61572
H         -1.47008       -2.34781        3.36710
H         -3.09173       -2.87943        2.99203
H         -1.71750       -3.75092        2.35561
