28
cdex_Au_opt_xtb_W_sugar_ghost4.log	Energy: -289573.9500385
Au         1.41375       -0.57949        0.03463
Cl         1.43976       -2.74268        0.65476
C          1.37063        1.37418       -0.54341
N          1.34216        2.66384       -0.92499
C          3.30975        3.93333        0.06467
C          2.39931        3.34591       -0.39326
H          4.13793        4.46767        0.48123
H         -0.94020        1.09156       -1.65258
C         -1.63066        0.63153       -0.93063
C         -2.54065       -0.37408       -1.66366
O         -2.32188        1.66429       -0.26012
H         -1.05614        0.03692       -0.20541
O         -1.66207       -1.43472       -1.99137
H         -2.96969        0.06875       -2.57533
C         -3.69701       -0.83437       -0.75452
C         -3.22386        1.14785        0.70032
H         -1.32480       -1.30756       -2.88113
H         -3.32092       -1.50401       -0.00951
C         -4.32818        0.39581       -0.07001
H         -4.43720       -1.33448       -1.34350
H         -3.64104        2.02591        1.21080
O         -2.62385        0.27554        1.59412
H         -4.75388        1.04073       -0.81012
H         -5.08950        0.07765        0.61122
C         -2.17689        0.77322        2.84895
H         -2.86764        1.50725        3.20805
H         -1.21122        1.21908        2.73232
H         -2.11546       -0.03220        3.55068
