22
110.log	Energy: -1535128.5848696
Cu         0.70375        0.29714       -0.01036
Cl         1.07068        0.50400       -2.08685
N          0.96032        0.80960        2.87951
C          0.30678        0.19968        1.84791
N         -0.69547       -0.49829        2.45752
C         -1.66012       -1.33454        1.74955
C          0.38321        0.48874        4.10522
H          0.75942        0.87266        5.03742
C         -0.65897       -0.33441        3.83962
H         -1.36877       -0.80828        4.49505
H         -2.67683       -1.01727        1.98579
H         -1.48764       -1.22082        0.68103
C          2.13410        1.66210        2.71649
H          3.00636        1.19759        3.17945
H          2.31747        1.78647        1.65097
H          1.95403        2.63915        3.16717
H         -1.52719       -2.38197        2.02557
H          1.95731       -1.57748        0.86914
C          2.52781       -2.41938        1.27082
H          2.22945       -3.33517        0.75875
H          3.59208       -2.24511        1.10686
H          2.33259       -2.51669        2.34087
