22
70.log	Energy: -1535126.8618666
Cu         0.70567        0.33065       -0.05284
Cl         1.13393        0.47278       -2.13429
N          1.00607        0.77064        2.84294
C          0.34118        0.18135        1.80596
N         -0.64456       -0.54219        2.41382
C         -1.62230       -1.35906        1.70044
C          0.44704        0.41902        4.06825
H          0.83368        0.78378        5.00389
C         -0.59171       -0.40717        3.79820
H         -1.28729       -0.90322        4.45247
H         -2.63355       -1.01196        1.91811
H         -1.43124       -1.26211        0.63347
C          2.16070        1.65022        2.68391
H          3.03390        1.21931        3.17625
H          2.36387        1.75390        1.61981
H          1.94674        2.63291        3.10704
H         -1.52198       -2.40633        1.98984
H          2.25606       -1.41195       -0.69995
C          2.96059       -2.22576       -0.89212
H          2.52366       -2.87946       -1.64926
H          3.87834       -1.79045       -1.29181
H          3.19591       -2.81071       -0.00063
