22
125.log	Energy: -1535127.4375564
Cu         0.74384        0.22560        0.03957
Cl         1.01923        0.54841       -2.03779
N          0.89367        0.88154        2.91007
C          0.27155        0.22905        1.88553
N         -0.76506       -0.42244        2.48837
C         -1.70663       -1.28896        1.78618
C          0.26559        0.62921        4.12685
H          0.60977        1.05650        5.05253
C         -0.77850       -0.19157        3.86141
H         -1.52240       -0.61966        4.51047
H         -2.73076       -0.99299        2.01710
H         -1.53456       -1.18175        0.71686
C          2.09311        1.69817        2.75218
H          2.94982        1.20796        3.21812
H          2.28422        1.81888        1.68755
H          1.93954        2.67924        3.20352
H         -1.55021       -2.33041        2.07305
H          1.79895       -1.53476        1.32293
C          2.29024       -2.33357        1.88804
H          2.00617       -3.30292        1.47643
H          3.37275       -2.21590        1.82359
H          1.97510       -2.27010        2.93199
