22
100.log	Energy: -1535128.7560918
Cu         0.78465        0.24834       -0.05781
Cl         1.26209        0.32424       -2.12138
N          0.98858        0.81249        2.82593
C          0.34445        0.19699        1.79141
N         -0.68706       -0.46598        2.39172
C         -1.65929       -1.28854        1.67784
C          0.37495        0.53194        4.04366
H          0.73886        0.92583        4.97660
C         -0.67972       -0.27261        3.77037
H         -1.41487       -0.71692        4.41853
H         -1.58586       -2.32768        2.00271
H         -2.66959       -0.91719        1.85613
C          2.18190        1.63958        2.67308
H          3.02806        1.18107        3.18745
H          2.40708        1.71670        1.61113
H          2.00210        2.63726        3.07637
H         -1.43738       -1.22907        0.61408
H          2.08418       -1.68375        0.60351
C          2.67214       -2.54973        0.91810
H          2.34822       -3.42547        0.35416
H          3.72633       -2.35897        0.71269
H          2.53273       -2.72824        1.98626
