22
60.log	Energy: -1535123.0130687
Cu         0.78161        0.26107       -0.11487
Cl         1.30949        0.27732       -2.18890
N          0.96355        0.85413        2.76304
C          0.33596        0.21668        1.73139
N         -0.68431       -0.46222        2.33358
C         -1.64117       -1.30640        1.62352
C          0.34790        0.57551        3.97988
H          0.69876        0.98633        4.91052
C         -0.68908       -0.25287        3.70963
H         -1.41857       -0.70510        4.35870
H         -1.56433       -2.33803        1.97050
H         -2.65645       -0.93929        1.78114
C          2.13567        1.71110        2.60780
H          2.38348        1.75839        1.54919
H          1.91794        2.71632        2.97188
H          2.98215        1.29566        3.15681
H         -1.40583       -1.26695        0.56174
H          2.32336       -1.39009       -0.98426
C          3.02519       -2.21203       -1.17896
H          2.57423       -2.84539       -1.94714
H          3.93219       -1.76891       -1.59795
H          3.30426       -2.83993       -0.33014
