22
105.log	Energy: -1535128.7140298
Cu         0.79255        0.23113       -0.04992
Cl         1.25883        0.31897       -2.11510
N          0.98074        0.82149        2.82994
C          0.34087        0.19842        1.79748
N         -0.69631       -0.45564        2.39755
C         -1.66464       -1.28444        1.68572
C          0.35994        0.55282        4.04677
H          0.71961        0.95412        4.97820
C         -0.69564       -0.25089        3.77462
H         -1.43596       -0.68703        4.42244
H         -1.58272       -2.32352        2.00890
H         -2.67690       -0.92050        1.86784
C          2.17919        1.64097        2.67675
H          3.02345        1.17572        3.18825
H          2.40274        1.71939        1.61454
H          2.00654        2.63870        3.08291
H         -1.44667       -1.22196        0.62130
H          2.02482       -1.67547        0.79002
C          2.58358       -2.53048        1.17956
H          2.26925       -3.43407        0.65553
H          3.64932       -2.36920        1.01196
H          2.39299       -2.64105        2.24908
