22
85.log	Energy: -1535128.4725203
Cu         0.81870        0.19040       -0.09787
Cl         1.36078        0.17057       -2.14971
N          0.96245        0.84799        2.76903
C          0.34472        0.19255        1.74269
N         -0.69064       -0.46311        2.34492
C         -1.64339       -1.31543        1.63947
C          0.32684        0.60209        3.98283
H          0.66793        1.03058        4.90912
C         -0.71354       -0.22302        3.71591
H         -1.45644       -0.65422        4.36410
H         -1.58139       -2.33930        2.01160
H         -2.65788       -0.93620        1.77169
C          2.14554        1.68898        2.61143
H          2.40813        1.70992        1.55551
H          1.93379        2.70436        2.95002
H          2.98002        1.27709        3.18119
H         -1.39040       -1.30277        0.58108
H          2.28624       -1.72534        0.09014
C          2.94889       -2.58519        0.21450
H          2.60219       -3.39104       -0.43392
H          3.95772       -2.29515       -0.08243
H          2.95439       -2.92478        1.25215
