22
130.log	Energy: -1535126.7397094
Cu         0.76043        0.19450        0.05967
Cl         0.99588        0.56589       -2.01600
N          0.86468        0.91498        2.91796
C          0.25598        0.24319        1.89794
N         -0.79520       -0.38777        2.49722
C         -1.72808       -1.26657        1.79886
C          0.21404        0.69447        4.12910
H          0.54431        1.14166        5.05044
C         -0.83079       -0.12555        3.86426
H         -1.58939       -0.53297        4.50960
H         -2.75482       -0.97376        2.02182
H         -1.55146       -1.16901        0.72935
C          2.07401        1.71723        2.76257
H          2.92290        1.21987        3.23536
H          2.27203        1.83133        1.69846
H          1.92869        2.70183        3.20879
H         -1.56771       -2.30432        2.09697
H          1.74856       -1.51831        1.45572
C          2.21520       -2.29976        2.06550
H          1.93310       -3.28243        1.68541
H          3.30039       -2.19515        2.03118
H          1.86684       -2.18842        3.09485
