22
80.log	Energy: -1535128.1873298
Cu         0.81056        0.19754       -0.09980
Cl         1.34863        0.17997       -2.15451
N          0.96231        0.85030        2.76763
C          0.34273        0.19520        1.74213
N         -0.68906       -0.46406        2.34663
C         -1.64266       -1.31683        1.64280
C          0.33099        0.60110        3.98296
H          0.67399        1.02892        4.90886
C         -0.70828       -0.22606        3.71801
H         -1.44816       -0.65998        4.36783
H         -1.57862       -2.34093        2.01394
H         -2.65722       -0.93882        1.77789
C          2.14246        1.69504        2.60771
H          2.40203        1.71809        1.55109
H          1.92860        2.70935        2.94817
H          2.97976        1.28497        3.17463
H         -1.39234       -1.30301        0.58379
H          2.31926       -1.69518       -0.12304
C          2.99992       -2.54885       -0.08055
H          2.63330       -3.31916       -0.76062
H          3.98707       -2.22179       -0.41045
H          3.06675       -2.95392        0.93116
