22
105.log	Energy: -590828.3467008
Au         0.81240        0.22736       -0.11971
Cl         1.33634        0.29914       -2.36592
N          0.97605        0.82444        2.85513
C          0.33366        0.19676        1.82948
N         -0.70452       -0.45847        2.42232
C         -1.67515       -1.29059        1.71556
C          0.35124        0.55624        4.07032
H          0.71015        0.96030        5.00060
C         -0.70291       -0.24828        3.79885
H         -1.44412       -0.68364        4.44581
H         -1.58751       -2.32800        2.04174
H         -2.68568       -0.92641        1.90510
C          2.17503        1.64579        2.70704
H          3.01770        1.17475        3.21536
H          2.39638        1.73144        1.64550
H          1.99923        2.63872        3.12277
H         -1.46133       -1.22795        0.65087
H          2.03583       -1.67223        0.74857
C          2.58688       -2.52684        1.15723
H          2.27326       -3.43634        0.64255
H          3.65551       -2.37417        0.99841
H          2.38713       -2.62456        2.22677
