22
110.log	Energy: -590828.1994086
Au         0.71986        0.30032       -0.08744
Cl         1.14712        0.48742       -2.34700
N          0.96104        0.80874        2.89887
C          0.30303        0.19652        1.87403
N         -0.69906       -0.50390        2.47676
C         -1.66615       -1.34332        1.77393
C          0.38289        0.48481        4.12360
H          0.76046        0.86895        5.05493
C         -0.65840       -0.33848        3.85884
H         -1.36749       -0.81348        4.51387
H         -2.68067       -1.03202        2.02574
H         -1.50453       -1.22206        0.70510
C          2.13584        1.66237        2.74058
H          3.00778        1.18884        3.19440
H          2.31301        1.79878        1.67606
H          1.95597        2.63205        3.20634
H         -1.52127       -2.39021        2.04496
H          1.95599       -1.56410        0.83724
C          2.51343       -2.40342        1.26877
H          2.21639       -3.32800        0.77136
H          3.58201       -2.24188        1.11848
H          2.30314       -2.48019        2.33810
