22
120.log	Energy: -590827.4055006
Au         0.74000        0.26698       -0.06447
Cl         1.12362        0.51248       -2.32641
N          0.92674        0.84477        2.91391
C          0.28390        0.21319        1.89171
N         -0.73509       -0.46503        2.49059
C         -1.68619       -1.32383        1.78966
C          0.32462        0.55158        4.13492
H          0.68662        0.95564        5.06398
C         -0.71782       -0.27003        3.86938
H         -1.44368       -0.72341        4.52133
H         -2.70532       -1.04441        2.05894
H         -1.54233       -1.18580        0.72032
C          2.11837        1.67507        2.75883
H          2.98533        1.17289        3.19122
H          2.28610        1.83086        1.69542
H          1.96506        2.63755        3.24804
H         -1.50808       -2.36950        2.04580
H          1.82865       -1.51377        1.16145
C          2.32472       -2.31898        1.71733
H          2.03899       -3.28360        1.29511
H          3.40675       -2.19979        1.64316
H          2.02387       -2.27560        2.76696
