22
130.log	Energy: -590825.5837057
Au         0.77127        0.21016       -0.02966
Cl         1.08503        0.54284       -2.29404
N          0.87506        0.90321        2.92984
C          0.25548        0.23873        1.91459
N         -0.78893       -0.40415        2.50789
C         -1.72042       -1.28926        1.81372
C          0.23289        0.66553        4.14255
H          0.56997        1.10444        5.06513
C         -0.81100       -0.15458        3.87784
H         -1.56327       -0.57143        4.52419
H         -2.74496       -1.02920        2.08120
H         -1.57964       -1.15785        0.74312
C          2.08827        1.70226        2.77949
H          2.94219        1.17398        3.20707
H          2.25990        1.86238        1.71733
H          1.96023        2.66397        3.27703
H         -1.52014       -2.32881        2.07882
H          1.71240       -1.46555        1.44187
C          2.15574       -2.23321        2.09103
H          1.87380       -3.22540        1.73584
H          3.24273       -2.14057        2.08227
H          1.78298       -2.08655        3.10792
