22
60.log	Energy: -590823.4236580
Au         0.81206        0.23752       -0.16442
Cl         1.38918        0.25017       -2.42266
N          0.95155        0.86136        2.80276
C          0.32597        0.21314        1.77906
N         -0.70237       -0.45753        2.37251
C         -1.66006       -1.30693        1.66794
C          0.32184        0.59647        4.01584
H          0.66688        1.01679        4.94416
C         -0.71527       -0.23058        3.74605
H         -1.45232       -0.67318        4.39287
H         -1.58777       -2.33305        2.03115
H         -2.67299       -0.93108        1.81825
C          2.12837        1.71448        2.65340
H          2.38778        1.74997        1.59768
H          1.90575        2.72228        3.00650
H          2.96465        1.30015        3.21821
H         -1.41814       -1.28119        0.60780
H          2.35269       -1.41714       -1.02912
C          3.05769       -2.22706       -1.25594
H          2.60106       -2.85088       -2.02780
H          3.95675       -1.76922       -1.67490
H          3.34272       -2.85918       -0.41227
