22
65.log	Energy: -590825.6631722
Au         0.82363        0.21403       -0.15802
Cl         1.40627        0.21265       -2.40784
N          0.94924        0.86160        2.80527
C          0.32764        0.20635        1.78353
N         -0.70500       -0.45751        2.37734
C         -1.66044       -1.31099        1.67475
C          0.31283        0.60786        4.01727
H          0.65391        1.03511        4.94390
C         -0.72448       -0.21940        3.74893
H         -1.46562       -0.65538        4.39558
H         -1.59150       -2.33440        2.04623
H         -2.67358       -0.93258        1.81712
C          2.12789        1.71186        2.65468
H          2.39576        1.73370        1.60070
H          1.90351        2.72432        2.99310
H          2.95920        1.30405        3.23146
H         -1.41326       -1.29378        0.61564
H          2.37546       -1.52481       -0.81176
C          3.08212       -2.34047       -1.00021
H          2.64590       -2.99519       -1.75708
H          3.99885       -1.90420       -1.40161
H          3.31974       -2.92481       -0.10872
