22
70.log	Energy: -590826.9468815
Au         0.73686        0.30752       -0.10651
Cl         1.20858        0.45437       -2.37236
N          0.99385        0.77843        2.88195
C          0.33278        0.17632        1.85226
N         -0.66271       -0.53706        2.45217
C         -1.64001       -1.36073        1.74421
C          0.41834        0.44331        4.10461
H          0.79753        0.81942        5.03857
C         -0.62045       -0.38169        3.83510
H         -1.32505       -0.86643        4.48785
H         -2.64967       -1.00518        1.95427
H         -1.44186       -1.27797        0.67790
C          2.15373        1.65356        2.72848
H          3.01633        1.22432        3.24008
H          2.37097        1.74257        1.66641
H          1.93353        2.64047        3.13773
H         -1.54296       -2.40314        2.05091
H          2.28599       -1.43953       -0.74456
C          2.99478       -2.24418       -0.96592
H          2.55339       -2.89063       -1.72624
H          3.90633       -1.79691       -1.36581
H          3.23440       -2.83265       -0.07764
