22
80.log	Energy: -590828.0386181
Au         0.84438        0.17120       -0.15237
Cl         1.43533        0.14405       -2.38842
N          0.94785        0.86245        2.80323
C          0.33190        0.19478        1.78602
N         -0.70866       -0.45543        2.38125
C         -1.66208       -1.31468        1.68321
C          0.30065        0.62927        4.01373
H          0.63621        1.06853        4.93675
C         -0.73819       -0.19721        3.74909
H         -1.48655       -0.62030        4.39598
H         -1.60229       -2.33253        2.07121
H         -2.67450       -0.92879        1.80988
C          2.13231        1.70389        2.64972
H          2.40472        1.71389        1.59671
H          1.91266        2.72093        2.97733
H          2.95880        1.29676        3.23392
H         -1.40478       -1.31525        0.62636
H          2.35120       -1.72312       -0.16593
C          3.03724       -2.57639       -0.14212
H          2.66775       -3.34313       -0.82454
H          4.02185       -2.24369       -0.47379
H          3.10623       -2.98335        0.86904
