22
85.log	Energy: -590828.2401735
Au         0.85220        0.16591       -0.15138
Cl         1.44711        0.13821       -2.38453
N          0.94843        0.85968        2.80422
C          0.33402        0.19240        1.78588
N         -0.70963       -0.45501        2.37869
C         -1.66234       -1.31343        1.67871
C          0.29743        0.62879        4.01315
H          0.63135        1.06807        4.93675
C         -0.74239       -0.19573        3.74628
H         -1.49338       -0.61682        4.39142
H         -1.60386       -2.33148        2.06636
H         -2.67473       -0.92694        1.80374
C          2.13518        1.69828        2.65319
H          2.41186        1.70465        1.60126
H          1.91637        2.71674        2.97696
H          2.95842        1.29108        3.24190
H         -1.40317       -1.31372        0.62230
H          2.31784       -1.75050        0.04451
C          2.98467       -2.61236        0.15613
H          2.63569       -3.41586       -0.49403
H          3.99248       -2.31967       -0.14180
H          2.99109       -2.95329        1.19371
