22
90.log	Energy: -590828.3466411
Au         0.73228        0.31324       -0.09547
Cl         1.19947        0.47089       -2.35219
N          0.98261        0.78127        2.89557
C          0.32280        0.18147        1.86381
N         -0.67569       -0.53000        2.46084
C         -1.65221       -1.35154        1.74957
C          0.40461        0.44506        4.11687
H          0.78305        0.81879        5.05208
C         -0.63543       -0.37728        3.84422
H         -1.34229       -0.86147        4.49492
H         -2.66210       -0.99658        1.95951
H         -1.45283       -1.26553        0.68373
C          2.14705        1.65069        2.74532
H          3.01101        1.20893        3.24391
H          2.35654        1.75312        1.68288
H          1.93634        2.63311        3.17001
H         -1.55555       -2.39491        2.05316
H          2.20018       -1.60392        0.07449
C          2.86744       -2.46752        0.17118
H          2.51580       -3.26369       -0.48654
H          3.87474       -2.17259       -0.12640
H          2.87769       -2.82088        1.20459
