22
95.log	Energy: -590828.3972598
Au         0.85889        0.14323       -0.15382
Cl         1.45305        0.10261       -2.38468
N          0.94958        0.86183        2.79665
C          0.33637        0.18691        1.78282
N         -0.70944       -0.45387        2.37868
C         -1.66052       -1.31832        1.68404
C          0.29707        0.64026        4.00657
H          0.63033        1.08599        4.92732
C         -0.74346       -0.18485        3.74443
H         -1.49597       -0.60005        4.39161
H         -1.59677       -2.33501        2.07447
H         -2.67406       -0.93549        1.81084
C          2.14006        1.69430        2.64150
H          2.40755        1.70707        1.58725
H          1.92987        2.71140        2.97496
H          2.96623        1.27793        3.21967
H         -1.40427       -1.32075        0.62692
H          2.21463       -1.76566        0.46037
C          2.82818       -2.62400        0.75613
H          2.51234       -3.50083        0.18898
H          3.87407       -2.40811        0.53299
H          2.71337       -2.81683        1.82508
