22
CH4_Au_HMCl_scan_lanl2dz_test.log	Energy: -311135.6081076
Au         0.80651        0.24059       -0.16853
Cl         1.40706        0.24707       -2.51182
N          0.95895        0.86856        2.80961
C          0.32445        0.21382        1.77759
N         -0.71247       -0.46555        2.37721
C         -1.67443       -1.31927        1.66657
C          0.32800        0.60034        4.03277
H          0.66951        1.01639        4.96591
C         -0.72300       -0.23858        3.76087
H         -1.45539       -0.67979        4.41617
H         -1.60551       -2.34967        2.03043
H         -2.69235       -0.94381        1.81350
C          2.14131        1.72696        2.65367
H          2.40734        1.76208        1.59581
H          1.92013        2.74089        3.00260
H          2.98289        1.31708        3.22165
H         -1.43541       -1.29952        0.60188
H          2.34765       -1.41657       -1.02750
C          3.05800       -2.22634       -1.25114
H          2.60110       -2.85190       -2.02745
H          3.95722       -1.75953       -1.67106
H          3.34444       -2.85794       -0.40166
