22
CH4_Au_HMCl_55.log	Energy: -590817.3267955
Au         0.66502        0.42614       -0.19424
Cl         1.38891        0.39791       -2.42672
N          0.97623        0.81851        2.78540
C          0.29601        0.23304        1.76095
N         -0.67280       -0.50160        2.37150
C         -1.63828       -1.32775        1.64752
C          0.44316        0.44869        4.01508
H          0.84044        0.80730        4.94794
C         -0.59323       -0.38260        3.75532
H         -1.27702       -0.88348        4.41711
H         -2.23679       -1.87604        2.37315
H         -2.28531       -0.69893        1.03676
C          2.14172        1.68538        2.59603
H          2.91083        1.14844        2.04360
H          1.85465        2.57685        2.03980
H          2.51992        1.97088        3.57608
H         -1.10951       -2.02988        1.00455
H          2.20558       -1.18713       -1.13399
C          2.91098       -1.96252       -1.47419
H          2.43868       -2.51851       -2.28320
H          3.80205       -1.46577       -1.85622
H          3.19801       -2.65746       -0.67766
