22
CH4_Cu_HM_272.log	Energy: -1535128.9684787
Cu         0.81197        0.19509       -0.11144
Cl         1.36402        0.15153       -2.15655
N          0.97377        0.84256        2.75579
C          0.34960        0.19075        1.73093
N         -0.68212       -0.46698        2.33731
C         -1.63977       -1.31649        1.63509
C          0.34571        0.59232        3.97255
H          0.69289        1.01710        4.89830
C         -0.69638       -0.23177        3.70919
H         -1.43497       -0.66561        4.36053
H         -1.58254       -2.33937        2.01059
H         -2.65230       -0.93179        1.76671
C          2.15574        1.68440        2.59422
H          2.41794        1.70142        1.53816
H          1.94316        2.70089        2.92899
H          2.99079        1.27544        3.16521
H         -1.38736       -1.30869        0.57654
H          2.39658       -1.96502        0.36230
C          3.03071       -2.82573        0.57877
H          2.70010       -3.67164       -0.02554
H          4.06191       -2.58125        0.32015
H          2.97101       -3.08688        1.63713
