22
CH4_Cu_HM_222.log	Energy: -1535127.8546619
Cu         0.84445        0.14831       -0.08014
Cl         1.37203        0.14588       -2.13803
N          0.95134        0.85944        2.77760
C          0.34393        0.18848        1.75532
N         -0.70392       -0.44905        2.35507
C         -1.65103       -1.30958        1.65214
C          0.29787        0.63975        3.98711
H          0.62860        1.08380        4.90982
C         -0.74400       -0.18372        3.72116
H         -1.49891       -0.59762        4.36673
H         -1.58828       -2.33053        2.03223
H         -2.66699       -0.93188        1.77696
C          2.14352        1.68751        2.62075
H          2.40543        1.70768        1.56462
H          1.94256        2.70442        2.96115
H          2.97422        1.26612        3.18921
H         -1.39348       -1.30408        0.59476
H          2.15000       -1.61606        0.25665
C          2.79629       -2.47824        0.45401
H          2.46463       -3.31309       -0.16464
H          3.82043       -2.21578        0.18576
H          2.75017       -2.75749        1.50849
