22
CH4_Cu_HM_202.log	Energy: -1535126.2129277
Cu         0.85450        0.21789       -0.02310
Cl         1.32871        0.37532       -2.09427
N          0.96373        0.81044        2.86478
C          0.34751        0.19304        1.81450
N         -0.71405       -0.44833        2.38518
C         -1.67427       -1.26168        1.64498
C          0.30217        0.55434        4.06285
H          0.63742        0.95520        5.00354
C         -0.75398       -0.23788        3.76096
H         -1.51937       -0.66238        4.38702
H         -1.61680       -2.30279        1.96699
H         -2.68577       -0.88354        1.80051
C          2.17219        1.62071        2.74430
H          3.00046        1.14759        3.27445
H          2.42171        1.70181        1.68805
H          1.99727        2.61823        3.14998
H         -1.42679       -1.19898        0.58700
H          2.03517       -1.41530        0.12310
C          2.68284       -2.29709        0.23679
H          2.32806       -3.07598       -0.43903
H          3.69989       -2.01525       -0.03812
H          2.66162       -2.65751        1.26703
