22
CH4_Cu_HM_192.log	Energy: -1535124.8884937
Cu         0.83006        0.17504       -0.01622
Cl         1.24171        0.34720       -2.10428
N          0.96687        0.82796        2.85972
C          0.34184        0.18678        1.82909
N         -0.71133       -0.44600        2.42434
C         -1.67642       -1.27747        1.71120
C          0.31883        0.59489        4.06992
H          0.66220        1.01696        4.99833
C         -0.73762       -0.20692        3.79586
H         -1.49523       -0.62027        4.43863
H         -1.60379       -2.31406        2.04462
H         -2.68848       -0.90668        1.88001
C          2.17085        1.63979        2.70915
H          3.00968        1.17535        3.23036
H          2.40177        1.70966        1.64785
H          1.99987        2.64141        3.10627
H         -1.44836       -1.22523        0.64828
H          1.97188       -1.36612        0.08182
C          2.63469       -2.24311        0.17449
H          2.26867       -3.02155       -0.49562
H          3.63882       -1.94554       -0.12932
H          2.64737       -2.60741        1.20335
