22
CH4_Cu_HM_292.log	Energy: -1535128.9110364
Cu         0.81075        0.19758       -0.11503
Cl         1.36329        0.15143       -2.15932
N          0.97699        0.84135        2.75260
C          0.35121        0.19092        1.72774
N         -0.67972       -0.46749        2.33488
C         -1.63919       -1.31534        1.63308
C          0.35035        0.59007        3.96984
H          0.69881        1.01378        4.89558
C         -0.69224       -0.23357        3.70696
H         -1.43004       -0.66798        4.35881
H         -1.58432       -2.33804        2.00944
H         -2.65088       -0.92827        1.76423
C          2.15830        1.68404        2.59052
H          2.42139        1.69954        1.53466
H          1.94456        2.70091        2.92342
H          2.99321        1.27677        3.16291
H         -1.38660       -1.30896        0.57457
H          2.51001       -2.12199        0.39662
C          3.14284       -2.98339        0.61156
H          2.81063       -3.82932        0.00816
H          4.17460       -2.74118        0.35302
H          3.08314       -3.24420        1.66994
