22
CH4_Cu_HM_262.log	Energy: -1535128.9331436
Cu         0.81733        0.19077       -0.10846
Cl         1.37122        0.15035       -2.15369
N          0.96892        0.84438        2.75816
C          0.34848        0.19025        1.73257
N         -0.68517       -0.46641        2.33672
C         -1.63984       -1.31793        1.63291
C          0.33687        0.59637        3.97333
H          0.68076        1.02317        4.89938
C         -0.70412       -0.22852        3.70811
H         -1.44485       -0.66117        4.35780
H         -1.58181       -2.34052        2.00911
H         -2.65328       -0.93478        1.76202
C          2.15154        1.68570        2.59881
H          2.41530        1.70313        1.54313
H          1.93890        2.70212        2.93374
H          2.98559        1.27613        3.17082
H         -1.38506       -1.31031        0.57491
H          2.34558       -1.88883        0.34652
C          2.98101       -2.74899        0.56367
H          2.65240       -3.59458       -0.04215
H          4.01191       -2.50214        0.30612
H          2.92048       -3.01109        1.62179
