22
CH4_Cu_HM_242.log	Energy: -1535128.6395319
Cu         0.82158        0.17290       -0.09862
Cl         1.36158        0.14304       -2.14957
N          0.96334        0.85140        2.76364
C          0.34572        0.18922        1.74163
N         -0.69105       -0.46058        2.34767
C         -1.64375       -1.31732        1.64760
C          0.32679        0.61462        3.97879
H          0.66784        1.04915        4.90228
C         -0.71445       -0.21103        3.71699
H         -1.45832       -0.63671        4.36769
H         -1.58218       -2.33869        2.02663
H         -2.65818       -0.93692        1.77681
C          2.14854        1.68842        2.60106
H          2.40863        1.70592        1.54446
H          1.94053        2.70525        2.93756
H          2.98322        1.27555        3.16984
H         -1.39028       -1.31184        0.58926
H          2.23981       -1.74716        0.30275
C          2.88035       -2.60701        0.51359
H          2.55036       -3.45026       -0.09466
H          3.90806       -2.35403        0.24951
H          2.82735       -2.87328        1.57111
