22
CH4_Cu_HM_252.log	Energy: -1535128.8314871
Cu         0.82022        0.18209       -0.10469
Cl         1.36961        0.14436       -2.15195
N          0.96639        0.84790        2.75977
C          0.34748        0.18992        1.73578
N         -0.68797       -0.46319        2.34060
C         -1.64164       -1.31713        1.63839
C          0.33179        0.60551        3.97479
H          0.67415        1.03601        4.89968
C         -0.70939       -0.21958        3.71098
H         -1.45188       -0.64872        4.36100
H         -1.58272       -2.33893        2.01662
H         -2.65545       -0.93469        1.76655
C          2.15044        1.68694        2.59912
H          2.41330        1.70347        1.54320
H          1.93985        2.70387        2.93377
H          2.98429        1.27619        3.17060
H         -1.38669       -1.31133        0.58042
H          2.29216       -1.81793        0.32718
C          2.92931       -2.67796        0.54300
H          2.60033       -3.52298       -0.06339
H          3.95913       -2.42905        0.28320
H          2.87111       -2.94091        1.60106
