22
NHC_Au_CH4_282_NEDA.log	Energy:  -25424.6844921
Au         0.84518        0.17534       -0.16219
Cl         1.44442        0.13850       -2.39011
C          0.33808        0.18927        1.77640
N          0.95676        0.85179        2.79546
N         -0.70107       -0.46383        2.37120
C          0.31302        0.61213        4.00647
C          2.14102        1.69375        2.64345
C         -1.65644       -1.31972        1.67172
C         -0.72660       -0.21290        3.74042
H          0.65140        1.04623        4.93090
H          2.41535        1.70321        1.59095
H          1.92056        2.71093        2.97016
H          2.96655        1.28707        3.22929
H         -1.59943       -2.33804        2.05884
H         -2.66796       -0.93133        1.79812
H         -1.39848       -1.32011        0.61505
H         -1.47296       -0.63964        4.38724
H          2.49383       -2.06223        0.31824
C          3.13072       -2.92345        0.52561
H          2.80006       -3.76695       -0.08217
H          4.16127       -2.67616        0.26672
H          3.07352       -3.19040        1.58283
