22
95.log	Energy: -597887.1500060
Ag         0.88652        0.12274       -0.20266
Cl         1.48741        0.07538       -2.44012
N          0.93572        0.86602        2.81757
C          0.33097        0.18640        1.80329
N         -0.71851       -0.44424        2.40098
C         -1.66660       -1.31036        1.70540
C          0.27724        0.65853        4.02728
H          0.60548        1.11089        4.94681
C         -0.76406       -0.16620        3.76505
H         -1.52187       -0.57400        4.41106
H         -1.61177       -2.32483        2.10310
H         -2.68053       -0.92401        1.81832
C          2.12819        1.69447        2.66098
H          2.40559        1.69414        1.60892
H          1.91901        2.71707        2.97816
H          2.95055        1.28614        3.25032
H         -1.40262       -1.32367        0.64997
H          2.23855       -1.78625        0.41934
C          2.85327       -2.64069        0.71766
H          2.54004       -3.51822        0.15072
H          3.89795       -2.42088        0.49416
H          2.73657       -2.83065        1.78649
