22
70.log	Energy: -597885.6883356
Ag         0.75156        0.30696       -0.16462
Cl         1.23247        0.44487       -2.43866
N          0.98330        0.77952        2.89941
C          0.32736        0.17725        1.86806
N         -0.66787       -0.53136        2.47141
C         -1.64309       -1.35548        1.76211
C          0.40775        0.45043        4.12419
H          0.78529        0.82865        5.05816
C         -0.63148       -0.37469        3.85481
H         -1.33773       -0.85705        4.50784
H         -2.65413       -1.00045        1.96671
H         -1.44310       -1.27582        0.69563
C          2.14401        1.65235        2.74376
H          3.00773        1.22431        3.25465
H          2.36237        1.74038        1.68155
H          1.92745        2.64122        3.15039
H         -1.54890       -2.39811        2.06920
H          2.30065       -1.44438       -0.79090
C          3.00970       -2.25335       -0.98954
H          2.57433       -2.90563       -1.74815
H          3.92412       -1.81039       -1.38719
H          3.24289       -2.83506       -0.09537
