22
75.log	Energy: -597886.3921208
Ag         0.85810        0.17616       -0.20843
Cl         1.45594        0.14674       -2.45449
N          0.93717        0.86410        2.82279
C          0.32503        0.19958        1.80278
N         -0.71417       -0.44829        2.40030
C         -1.66666       -1.30546        1.69941
C          0.29185        0.63244        4.03507
H          0.62702        1.07063        4.95895
C         -0.74756       -0.19357        3.76915
H         -1.49642       -0.61679        4.41566
H         -1.61023       -2.32453        2.08487
H         -2.67978       -0.92002        1.82245
C          2.12180        1.70440        2.66864
H          2.39322        1.71825        1.61513
H          1.90600        2.72156        2.99864
H          2.95081        1.29632        3.24872
H         -1.40841       -1.30651        0.64250
H          2.38950       -1.68586       -0.42478
C          3.08600       -2.52812       -0.46394
H          2.69930       -3.26044       -1.17394
H          4.04909       -2.15997       -0.82013
H          3.20821       -2.99289        0.51650
