22
100.log	Energy: -597887.1441394
Ag         0.84140        0.21257       -0.17010
Cl         1.37854        0.27492       -2.42256
N          0.96514        0.82413        2.87782
C          0.33155        0.19391        1.84947
N         -0.70983       -0.45343        2.44327
C         -1.68012       -1.28219        1.73303
C          0.33314        0.56867        4.09252
H          0.68642        0.97781        5.02295
C         -0.72128       -0.23544        3.81897
H         -1.46783       -0.66489        4.46406
H         -1.61827       -2.31506        2.07906
H         -2.68895       -0.89916        1.89291
C          2.16289        1.64646        2.72988
H          2.99820        1.19615        3.26829
H          2.40685        1.70294        1.67107
H          1.97699        2.65156        3.11094
H         -1.44557       -1.24458        0.67126
H          2.13172       -1.71690        0.51646
C          2.71868       -2.58208        0.83909
H          2.39668       -3.46079        0.27888
H          3.77368       -2.39225        0.63756
H          2.57254       -2.75208        1.90773
