22
130.log	Energy: -597885.0458826
Ag         0.81971        0.15694       -0.05821
Cl         1.10882        0.52468       -2.33077
N          0.84837        0.91957        2.96510
C          0.24679        0.23734        1.95179
N         -0.81063       -0.38262        2.54477
C         -1.74465       -1.26364        1.84977
C          0.18564        0.71608        4.17363
H          0.50967        1.17283        5.09246
C         -0.85889       -0.10378        3.90899
H         -1.62437       -0.50218        4.55177
H         -2.77035       -0.95426        2.05365
H         -1.55249       -1.18822        0.78142
C          2.05898        1.72148        2.81347
H          2.90035        1.23443        3.30940
H          2.27373        1.81563        1.75093
H          1.90409        2.71373        3.23864
H         -1.60005       -2.29693        2.16986
H          1.78237       -1.53643        1.37876
C          2.23976       -2.31163        2.00475
H          1.95824       -3.29845        1.63528
H          3.32555       -2.21066        1.98173
H          1.87893       -2.18295        3.02785
