22
110.log	Energy: -597886.9423079
Ag         0.75761        0.26524       -0.12953
Cl         1.18133        0.46030       -2.39769
N          0.94126        0.81721        2.92789
C          0.29747        0.19323        1.90238
N         -0.71363       -0.49054        2.50703
C         -1.67752       -1.33197        1.80324
C          0.34754        0.51922        4.15230
H          0.71433        0.91707        5.08239
C         -0.69428       -0.30396        3.88737
H         -1.41417       -0.76468        4.54111
H         -2.69348       -0.99948        2.02030
H         -1.49044       -1.24182        0.73520
C          2.11846        1.66646        2.76849
H          2.98253        1.20861        3.25257
H          2.31805        1.77354        1.70429
H          1.93143        2.65033        3.20073
H         -1.55810       -2.37429        2.10297
H          1.99671       -1.60142        0.78663
C          2.56276       -2.44053        1.20293
H          2.26656       -3.36132        0.69876
H          3.62857       -2.26961        1.04590
H          2.35737       -2.52386        2.27227
