22
65.log	Energy: -597884.4409077
Ag         0.83884        0.21390       -0.21546
Cl         1.43013        0.20511       -2.47347
N          0.93868        0.86260        2.82321
C          0.32144        0.20867        1.79950
N         -0.71022       -0.45161        2.39637
C         -1.66409       -1.30458        1.69208
C          0.30350        0.61270        4.03716
H          0.64377        1.04054        4.96401
C         -0.73429       -0.21448        3.76852
H         -1.47629       -0.64938        4.41520
H         -1.59812       -2.32858        2.06263
H         -2.67822       -0.92688        1.82983
C          2.11793        1.71090        2.67103
H          2.38542        1.73436        1.61669
H          1.89770        2.72427        3.00968
H          2.95129        1.30293        3.24486
H         -1.41562       -1.28937        0.63294
H          2.39059       -1.52853       -0.85977
C          3.09628       -2.34928       -1.02445
H          2.66555       -3.00945       -1.77953
H          4.01646       -1.91847       -1.42346
H          3.32732       -2.92739       -0.12734
