22
85.log	Energy: -597886.9940793
Ag         0.87526        0.15272       -0.20480
Cl         1.47882        0.11545       -2.44426
N          0.93614        0.86276        2.82240
C          0.32856        0.19285        1.80322
N         -0.71683       -0.44695        2.39856
C         -1.66691       -1.30663        1.69758
C          0.28233        0.64181        4.03219
H          0.61301        1.08549        4.95507
C         -0.75812       -0.18257        3.76541
H         -1.51255       -0.59871        4.41004
H         -1.61314       -2.32398        2.08798
H         -2.68021       -0.91972        1.81426
C          2.12473        1.69758        2.66968
H          2.40385        1.70110        1.61808
H          1.91017        2.71841        2.98902
H          2.94804        1.29177        3.25940
H         -1.40394       -1.31276        0.64184
H          2.33778       -1.76485        0.00276
C          3.00319       -2.62399        0.12738
H          2.65814       -3.43075       -0.52043
H          4.01131       -2.33120       -0.16850
H          3.00502       -2.95885        1.16656
