22
125.log	Energy: -597885.7673328
Ag         0.80017        0.19190       -0.07893
Cl         1.13030        0.50888       -2.35126
N          0.87756        0.88590        2.95774
C          0.26259        0.22291        1.93956
N         -0.78060       -0.41723        2.53655
C         -1.72323       -1.28618        1.83784
C          0.23688        0.65119        4.17241
H          0.57456        1.08844        5.09581
C         -0.80706       -0.16922        3.90725
H         -1.55829       -0.58774        4.55406
H         -2.74635       -0.97473        2.05157
H         -1.53727       -1.19976        0.76925
C          2.07864        1.70167        2.80355
H          2.92803        1.22040        3.29125
H          2.28574        1.80410        1.74028
H          1.91625        2.68983        3.23555
H         -1.58102       -2.32352        2.14548
H          1.83255       -1.55260        1.24395
C          2.31568       -2.34618        1.82487
H          2.03251       -3.31985        1.42308
H          3.39912       -2.23231        1.77059
H          1.98866       -2.26637        2.86409
