22
120.log	Energy: -597886.3109229
Ag         0.78595        0.21996       -0.09869
Cl         1.15593        0.48793       -2.36972
N          0.90221        0.85798        2.94730
C          0.27683        0.21042        1.92539
N         -0.75443       -0.44678        2.52485
C         -1.70413       -1.30564        1.82309
C          0.27917        0.59790        4.16590
H          0.62755        1.01946        5.09262
C         -0.76378       -0.22352        3.89995
H         -1.50324       -0.65882        4.54926
H         -2.72502       -0.98945        2.04079
H         -1.51976       -1.21399        0.75468
C          2.09440        1.68655        2.79176
H          2.94953        1.21344        3.27727
H          2.29835        1.79194        1.72818
H          1.92290        2.67269        3.22500
H         -1.56737       -2.34555        2.12422
H          1.88603       -1.56967        1.10388
C          2.39522       -2.37942        1.63725
H          2.11009       -3.33858        1.20314
H          3.47490       -2.24984        1.55162
H          2.10351       -2.34978        2.68945
