22
60.log	Energy: -597882.2888081
Ag         0.82540        0.23948       -0.22252
Cl         1.41109        0.24551       -2.49028
N          0.94024        0.86226        2.82085
C          0.31920        0.21528        1.79510
N         -0.70713       -0.45327        2.39185
C         -1.66258       -1.30296        1.68567
C          0.31254        0.60002        4.03607
H          0.65673        1.02088        4.96466
C         -0.72427       -0.22795        3.76607
H         -1.46137       -0.67062        4.41307
H         -1.59226       -2.32964        2.04785
H         -2.67686       -0.92877        1.83154
C          2.11643        1.71507        2.66973
H          2.37696        1.75028        1.61398
H          1.89589        2.72424        3.02044
H          2.95455        1.30320        3.23374
H         -1.41959       -1.27893        0.62544
H          2.36807       -1.41783       -1.07846
C          3.07298       -2.23420       -1.28019
H          2.62231       -2.86423       -2.05033
H          3.97579       -1.78233       -1.69724
H          3.35189       -2.86018       -0.42996
