17
Ag_NHC_Cl.log	Energy: -572449.5568504
Ag         0.98236       -0.01858       -0.13666
Cl         1.67280       -0.18491       -2.33902
N          0.93995        0.84501        2.84839
C          0.36249        0.13016        1.84191
N         -0.71403       -0.46508        2.42864
C         -1.65295       -1.34374        1.73604
C          0.23558        0.69760        4.04073
H          0.53637        1.18550        4.95143
C         -0.80541       -0.12691        3.77655
H         -1.59036       -0.49886        4.41169
H         -1.65353       -2.33195        2.19825
H         -2.65799       -0.92058        1.76891
C          2.14209        1.66105        2.69921
H          2.47458        1.58988        1.66574
H          1.92081        2.70287        2.93559
H          2.93034        1.29288        3.35750
H         -1.33395       -1.43198        0.69963
