17
Au_NHC_Cl.log	Energy: -565391.2078538
Au         0.94613       -0.01979       -0.07735
Cl         1.61911       -0.19144       -2.27729
N          0.95702        0.83762        2.83514
C          0.36180        0.12853        1.83318
N         -0.72000       -0.45735        2.42262
C         -1.67461       -1.32477        1.73643
C          0.25567        0.69452        4.02930
H          0.56767        1.17796        4.93841
C         -0.79597       -0.11744        3.77060
H         -1.58132       -0.48111        4.40974
H         -1.68312       -2.31189        2.20074
H         -2.67335       -0.88775        1.77737
C          2.16799        1.64045        2.68180
H          2.49154        1.56884        1.64582
H          1.95834        2.68305        2.92496
H          2.95452        1.25901        3.33448
H         -1.36227       -1.41607        0.69856
