22
CH4_Au_complex.log	Energy: -590830.6836094
Au         0.17350        0.89085       -0.36816
Cl         0.13342        1.51679       -2.58786
N          1.13176        0.68536        2.50445
C          0.21502        0.33764        1.55656
N         -0.65276       -0.49079        2.20512
C         -1.80965       -1.13372        1.58713
C          0.84177        0.07787        3.72242
H          1.45200        0.22559        4.59607
C         -0.27774       -0.65974        3.53522
H         -0.83726       -1.27900        4.21417
H         -1.68823       -2.21785        1.60376
H         -2.72004       -0.85468        2.11929
C          2.28845        1.54459        2.26729
H          3.20939        0.97064        2.38020
H          2.22405        1.92503        1.25036
H          2.28265        2.37901        2.96963
H         -1.87397       -0.79387        0.55590
H          2.01934       -1.72834        0.35715
C          2.52826       -2.19841        1.19841
H          2.85348       -3.20119        0.91893
H          3.40051       -1.60180        1.47094
H          1.84994       -2.25936        2.05086
