17
Cu_NHC_Cl.log	Energy: -1509690.8260891
Cu         0.94627       -0.02769        0.00511
Cl         1.58438       -0.19630       -2.00781
N          0.95079        0.84311        2.81799
C          0.37416        0.12353        1.81034
N         -0.70910       -0.46207        2.40134
C         -1.64793       -1.34026        1.70896
C          0.24152        0.70739        4.00795
H          0.54104        1.19990        4.91663
C         -0.80302       -0.11392        3.74576
H         -1.59187       -0.47707        4.38122
H         -1.65493       -2.32687        2.17493
H         -2.65205       -0.91397        1.73458
C          2.15735        1.65093        2.66419
H          2.49069        1.56943        1.63147
H          1.94264        2.69631        2.89157
H          2.94351        1.28424        3.32609
H         -1.32431       -1.43434        0.67422
